 &MOM_input_nml
         output_directory   = 'OUTPUT',
         input_filename     = 'n',
         restart_input_dir  = 'RESTART/',
         restart_output_dir = 'RESTART/',
         parameter_filename = 'MOM_input',
                              'MOM_override'

/