/* This input file provides the adjustable run-time parameters for version 6 of
   the Modular Ocean Model (MOM6), a numerical ocean model developed at NOAA-GFDL.
   Where appropriate, parameters use usually given in MKS units.

   This MOM_input file typically contains only the non-default values that are
   needed to reproduce this example.  A full list of parameters for this example
   can be found in the corresponding MOM_parameter_doc.all file which is
   generated by the model at run-time. */

REPORT_UNUSED_PARAMS = True     !   [Boolean] default = False
                                ! If true, report any parameter lines that are not used in the run.
FATAL_UNUSED_PARAMS = False      !   [Boolean] default = False
                                ! If true, kill the run if there are any unused parameters.

CALCULATE_APE = False           !   [Boolean] default = True
                                ! If true, calculate the available potential energy of
                                ! the interfaces.  Setting this to false reduces the
                                ! memory footprint of high-PE-count models dramatically.
REENTRANT_X = False             !   [Boolean] default = True
                                ! If true, the domain is zonally reentrant.
REENTRANT_Y = False             !   [Boolean] default = False
                                ! If true, the domain is meridionally reentrant.
TRIPOLAR_N = False              !   [Boolean] default = False
                                ! Use tripolar connectivity at the northern edge of the
                                ! domain.  With TRIPOLAR_N, NIGLOBAL must be even.
!SYMMETRIC_MEMORY_ = True       !   [Boolean]
                                ! If defined, the velocity point data domain includes
                                ! every face of the thickness points. In other words,
                                ! some arrays are larger than others, depending on where
                                ! they are on the staggered grid.  Also, the starting
                                ! index of the velocity-point arrays is usually 0, not 1.
                                ! This can only be set at compile time.
!STATIC_MEMORY_ = False         !   [Boolean]
                                ! If STATIC_MEMORY_ is defined, the principle variables
                                ! will have sizes that are statically determined at
                                ! compile time.  Otherwise the sizes are not determined
                                ! until run time. The STATIC option is substantially
                                ! faster, but does not allow the PE count to be changed
                                ! at run time.  This can only be set at compile time.
NIHALO = 4                      ! default = 2
                                ! The number of halo points on each side in the
                                ! x-direction.  With STATIC_MEMORY_ this is set as NIHALO_
                                ! in MOM_memory.h at compile time; without STATIC_MEMORY_
                                ! the default is NIHALO_ in MOM_memory.h (if defined) or 2.
NJHALO = 4                      ! default = 2
                                ! The number of halo points on each side in the
                                ! y-direction.  With STATIC_MEMORY_ this is set as NJHALO_
                                ! in MOM_memory.h at compile time; without STATIC_MEMORY_
                                ! the default is NJHALO_ in MOM_memory.h (if defined) or 2.
NIGLOBAL = 262                  ! HYCOM: idm=263
                                ! The total number of thickness grid points in the
                                ! x-direction in the physical domain. With STATIC_MEMORY_
                                ! this is set in MOM_memory.h at compile time.
NJGLOBAL = 192                  ! HYCOM: jdm=193
                                ! The total number of thickness grid points in the
                                ! y-direction in the physical domain. With STATIC_MEMORY_
                                ! this is set in MOM_memory.h at compile time.
!NIPROC = 4                     !
                                ! The number of processors in the x-direction. With
                                ! STATIC_MEMORY_ this is set in MOM_memory.h at compile time.
!NJPROC = 4                     !
                                ! The number of processors in the x-direction. With
                                ! STATIC_MEMORY_ this is set in MOM_memory.h at compile time.
!LAYOUT = 12,12                   !
                                ! The processor layout that was acutally used.

! === module MOM_grid ===
! Parameters providing information about the vertical grid.
NK = 41                         !   [nondim];  HYCOM: kdm=41
                                ! The number of model layers.

! === module MOM_verticalGrid ===
! Parameters providing information about the vertical grid.

! === module MOM_main (MOM_driver) ===
!RESTINT = 3.0                   !   [days] default = 0.0
                                ! The interval between saves of the restart file in units
                                ! of TIMEUNIT.  Use 0 (the default) to not save
                                ! incremental restart files at all.
! === module MOM_state_initialization ===
SPONGE = False                   !    If SPONGE is defined, sponges may be applied (here changed)
                                !  anywhere in the domain. The exact location and
                                !  properties of those sponges are specified from
                                !  MOM_initialization.F90.
SPONGE_CONFIG = "file"          ! default = "file"
                                ! A string that sets how the sponges are configured:
                                !     file - read sponge properties from the file
                                !       specified by (SPONGE_FILE).
                                !     ISOMIP - apply ale sponge in the ISOMIP case
                                !     DOME - use a slope and channel configuration for the
                                !       DOME sill-overflow test case.
                                !     BFB - Sponge at the southern boundary of the domain
                                !       for buoyancy-forced basin case.
                                !     USER - call a user modified routine.
SPONGE_DAMPING_FILE = "Sponge_rmu.nc"
                                ! The name of the file with the sponge damping rates.
SPONGE_STATE_FILE = "53X_archm.sponge_mask.nc"
                                ! The name of the file with the state to damp toward.
SPONGE_PTEMP_VAR = "ptemp" ! default = "PTEMP"
                                ! The name of the potential temperature variable in SPONGE_STATE_FILE.
SPONGE_SALT_VAR = "salinity"     ! default = "SALT"
                                ! The name of the salinity variable in SPONGE_STATE_FILE.
SPONGE_ETA_VAR = "interface_depth"     ! default = "ETA"
                                ! The name of the interface height variable in SPONGE_STATE_FILE.
SPONGE_UV_STATE_FILE = "53X_archm.sponge_mask.nc"
                                ! The name of the file with the state to damp UV toward.
SPONGE_U_VAR = "water_u" ! default = "u"
                                ! The name of the u-vel variable in SPONGE_STATE_FILE.
SPONGE_V_VAR = "water_v"     ! default = "v"
                                ! The name of the v-vel variable in SPONGE_STATE_FILE.
!
SPONGE_IDAMP_VAR = "rmu"        ! default = "IDAMP"
                                ! The name of the inverse damping rate variable in SPONGE_DAMPING_FILE.
INTERPOLATE_SPONGE_TIME_SPACE = False  ! Set True if using the newer sponging code which
                                      ! performs on-the-fly regridding in lat-lon-time.
                                      ! of sponge restoring data.

! === module MOM_sponge ===
!SPONGE_UV =  True             !   [Boolean] default = False
                                ! Apply sponges in u and v, in addition to tracers.

! === Open Boundaries ===

OBC_NUMBER_OF_SEGMENTS = 2      ! [Integer] The number of open boundary segments.
OBC_SEGMENT_001 = "J=4,I=77:90,SIMPLE"
OBC_SEGMENT_002 = "I=77,J=4:7,SIMPLE"
!OBC_SEGMENT_003 = "J=N,I=N:0,FLATHER"
!OBC_SEGMENT_001_DATA = "U=file:obc_south.nc(u11),V=file:obc_south.nc(v11),SSH=file:obc_south.nc(ssh),TEMP=file:obc_south.nc(pt),SALT=file:obc_south.nc(s)"

OBC_SEGMENT_001_DATA = "V=file:final_south40tt.nc(V11)"
OBC_SEGMENT_002_DATA = "U=file:obc_east.nc(u11),V=file:obc_east.nc(v11),SSH=file:obc_east.nc(ssh),TEMP=file:obc_east.nc(pt),SALT=file:obc_east.nc(s)"
!OBC_SEGMENT_003_DATA = "U=file:obc_north.nc(u11),V=file:obc_north.nc(v11),SSH=file:obc_north.nc(ssh),TEMP=file:obc_north.nc(pt),SALT=file:obc_north.nc(s)"

!OBC_SEGMENT_001_VELOCITY_NUDGING_TIMESCALES = 0.3, 360
!OBC_SEGMENT_002_VELOCITY_NUDGING_TIMESCALES = 0.3, 360
!OBC_SEGMENT_003_VELOCITY_NUDGING_TIMESCALES = 0.3, 360
!OBC_TRACER_RESERVOIR_LENGTH_SCALE_OUT = 30000
!OBC_TRACER_RESERVOIR_LENGTH_SCALE_IN = 3000

!OBC_ZERO_VORTICITY = True      !   [Boolean] default = False

!OBC_FREESLIP_VORTICITY = False
!OBC_COMPUTED_VORTICITY = True
!OBC_FREESLIP_STRAIN = True
!OBC_ZERO_BIHARMONIC = True
!MASK_OUTSIDE_OBCS = True       !   [Boolean] default = False
                                ! If true, set the areas outside open boundaries to be land.


! === module MOM ===
DIABATIC_FIRST = False          !   [Boolean] default = False
                                ! If true, apply diabatic and thermodynamic processes,
                                ! including buoyancy forcing and mass gain or loss,
                                ! before stepping the dynamics forward.
BULKMIXEDLAYER = False           !   [Boolean] default = True
                                ! If true, use a Kraus-Turner-like bulk mixed layer
                                ! with transitional buffer layers.  Layers 1 through
                                ! NKML+NKBL have variable densities. There must be at
                                ! least NKML+NKBL+1 layers if BULKMIXEDLAYER is true.
USE_LEGACY_DIABATIC_DRIVER = False !   [Boolean] default = True
                                ! If true, use a legacy version of the diabatic subroutine. This is temporary
                                ! and is needed to avoid change in answers.
USE_REGRIDDING = True           !   [Boolean] default = False
                                ! If True, use the ALE algorithm (regridding/remapping).
                                ! If False, use the layered isopycnal algorithm.
THICKNESSDIFFUSE = False        !   [Boolean] default = False
                                ! If true, interfaces or isopycnal surfaces are diffused,
                                ! depending on the value of FULL_THICKNESSDIFFUSE.
THICKNESSDIFFUSE_FIRST = True   !   [Boolean] default = False
                                ! If true, do thickness diffusion before dynamics.
                                ! This is only used if THICKNESSDIFFUSE is true.
DT =  300.0                     !   [s];  HYCOM: baclin=180.0
                                ! The (baroclinic) dynamics time step.  The time-step that
                                ! is actually used will be an integer fraction of the
                                ! forcing time-step (DT_FORCING in ocean-only mode or the
                                ! coupling timestep in coupled mode.)
DT_THERM = 1200.0               !   [s] default =  300.0;  HYCOM: baclin=180.00
                                ! The thermodynamic and tracer advection time step.
                                ! Ideally DT_THERM should be an integer multiple of DT
                                ! and less than the forcing or coupling time-step, unless
                                ! THERMO_SPANS_COUPLING is true, in which case DT_THERM
                                ! can be an integer multiple of the coupling timestep.  By
                                ! default DT_THERM is set to DT.
THERMO_SPANS_COUPLING = False   !   [Boolean] default = False
                                ! If true, the MOM will take thermodynamic and tracer
                                ! timesteps that can be longer than the coupling timestep.
                                ! The actual thermodynamic timestep that is used in this
                                ! case is the largest integer multiple of the coupling
                                ! timestep that is less than or equal to DT_THERM.
FRAZIL = True                   !   [Boolean] default = False
                                ! If true, water freezes if it gets too cold, and the
                                ! the accumulated heat deficit is returned in the
                                ! surface state.  FRAZIL is only used if
                                ! ENABLE_THERMODYNAMICS is true.
BOUND_SALINITY = True           !   [Boolean] default = False
                                ! If true, limit salinity to being positive. (The sea-ice
                                ! model may ask for more salt than is available and
                                ! drive the salinity negative otherwise.)
C_P = 3992.0                    !   [J kg-1 K-1] default = 3991.86795711963
                                ! The heat capacity of sea water, approximated as a
                                ! constant. This is only used if ENABLE_THERMODYNAMICS is
                                ! true. The default value is from the TEOS-10 definition
                                ! of conservative temperature.
CHECK_BAD_SURFACE_VALS = True   !   [Boolean] default = False
                                ! If true, check the surface state for ridiculous values.
BAD_VAL_SSH_MAX = 50.0          !   [m] default = 20.0
                                ! The value of SSH above which a bad value message is
                                ! triggered, if CHECK_BAD_SURFACE_VALS is true.
BAD_VAL_SSS_MAX = 75.0          !   [PPT] default = 45.0
                                ! The value of SSS above which a bad value message is
                                ! triggered, if CHECK_BAD_SURFACE_VALS is true.
BAD_VAL_SST_MAX = 55.0          !   [deg C] default = 45.0
                                ! The value of SST above which a bad value message is
                                ! triggered, if CHECK_BAD_SURFACE_VALS is true.
BAD_VAL_SST_MIN = -3.0          !   [deg C] default = -2.1
                                ! The value of SST below which a bad value message is
                                ! triggered, if CHECK_BAD_SURFACE_VALS is true.

! === module MOM_tracer_registry ===

! === module MOM_EOS ===
EQN_OF_STATE = "WRIGHT"         ! default = "WRIGHT";  HYCOM: TEOS10 17-term sigma-2
                                ! EQN_OF_STATE determines which ocean equation of state
                                ! should be used.  Currently, the valid choices are
                                ! "LINEAR", "UNESCO", "WRIGHT", "NEMO" and "TEOS10".

TFREEZE_FORM = "LINEAR" ! default = "LINEAR"
                                ! TFREEZE_FORM determines which expression should be
                                ! used for the freezing point.  Currently, the valid
                                ! choices are "LINEAR", "MILLERO_78", "TEOS10"

DTFREEZE_DP = -7.75E-08         !   [deg C Pa-1] default = 0.0
                                ! When TFREEZE_FORM=LINEAR,
                                ! this is the derivative of the freezing potential
                                ! temperature with pressure.
PARALLEL_RESTARTFILES = True    !   [Boolean] default = False
                                ! If true, each processor writes its own restart file,
                                ! otherwise a single restart file is generated
RESTART_CHECKSUMS_REQUIRED = False   !   [Boolean] default = True
                                ! If true, require the restart checksums to match and error out otherwise.


! === module MOM_tracer_flow_control ===
USE_IDEAL_AGE_TRACER = False     !   [Boolean] default = False
                                ! If true, use the ideal_age_example tracer package.

! === module ideal_age_example ===
INPUTDIR = "INPUT"              ! default = "."
                                ! The directory in which input files are found.
COORD_CONFIG = "file"           !
                                ! This specifies how layers are to be defined:
                                !     file - read coordinate information from the file
                                !       specified by (COORD_FILE).
                                !     linear - linear based on interfaces not layesrs.
                                !     ts_ref - use reference temperature and salinity
                                !     ts_range - use range of temperature and salinity
                                !       (T_REF and S_REF) to determine surface density
                                !       and GINT calculate internal densities.
                                !     gprime - use reference density (RHO_0) for surface
                                !       density and GINT calculate internal densities.
                                !     ts_profile - use temperature and salinity profiles
                                !       (read from COORD_FILE) to set layer densities.
                                !     USER - call a user modified routine.
COORD_FILE = "mom6_vgrid.nc"    !
                                ! The file from which the coordinate densities are read.

!ALE_COORDINATE_CONFIG = "FILE:mom6_vgrid.nc,interfaces=st_edges_ocean"


REGRIDDING_COORDINATE_MODE = "HYCOM1" ! default = "LAYER";  HYCOM: nhybrd=41
                                ! Coordinate mode for vertical regridding.
                                ! Choose among the following possibilities:
                                !  LAYER - Isopycnal or stacked shallow water layers
                                !  Z*    - stetched geopotential z*
                                !  SIGMA - terrain following coordinates
                                !  RHO   - continuous isopycnal
                                !  HYCOM1 - HyCOM-like hybrid coordinate
                                !  SLIGHT - stretched coordinates above continuous isopycnal
REGRID_COMPRESSIBILITY_FRACTION = 0.01 !   [not defined] default = 0.0
                                ! When interpolating potential density profiles we can add
                                ! some artificial compressibility solely to make homogenous
                                ! regions appear stratified.
ALE_COORDINATE_CONFIG = "HYBRID:mom6_vgrid.nc,sigma2,dz" ! default = "UNIFORM"
                                ! Determines how to specify the coordinate
                                ! resolution. Valid options are:
                                !  PARAM       - use the vector-parameter ALE_RESOLUTION
                                !  UNIFORM     - uniformly distributed
                                !  FILE:string - read from a file. The string specifies
                                !                the filename and variable name, separated
                                !                by a comma or space, e.g. FILE:lev.nc,Z
                                !  FNC1:string - FNC1:dz_min,H_total,power,precision
                                !  HYBRID:string - read from a file. The string specifies
                                !                the filename and two variable names, separated
                                !                by a comma or space, for sigma-2 and dz. e.g.
                                !                HYBRID:vgrid.nc,sigma2,dz
                                ! The distribution of vertical resolution for the target
                                ! grid used for Eulerian-like coordinates. For example,
                                ! in z-coordinate mode, the parameter is a list of level
                                ! thicknesses (in m). In sigma-coordinate mode, the list
                                ! is of non-dimensional fractions of the water column.
                                ! HYBRID target densities for itnerfaces
BOUNDARY_EXTRAPOLATION = False   !   [Boolean] default = False
                                ! When defined, a proper high-order reconstruction
                                ! scheme is used within boundary cells rather
                                ! than PCM. E.g., if PPM is used for remapping, a
                                ! PPM reconstruction will also be used within
                                ! boundary cells.
REMAPPING_SCHEME = "PLM"     ! default = "PLM";  HYCOM:  hybmap=3
                                ! This sets the reconstruction scheme used
                                ! for vertical remapping for all variables.
                                ! It can be one of the following schemes:
                                ! PCM         (1st-order accurate)
                                ! PLM         (2nd-order accurate)
                                ! PPM_H4      (3rd-order accurate)
                                ! PPM_IH4     (3rd-order accurate)
                                ! PQM_IH4IH3  (4th-order accurate)
                                ! PQM_IH6IH5  (5th-order accurate)
REMAP_AFTER_INITIALIZATION = True !   [Boolean] default = True
                                ! If true, applies regridding and remapping immediately after
                                ! initialization so that the state is ALE consistent. This is a
                                ! legacy step and should not be needed if the initialization is
                                ! consistent with the coordinate mode.

! === module MOM_grid_init ===
GRID_CONFIG = "mosaic"          !
                                ! A character string that determines the method for
                                ! defining the horizontal grid.  Current options are:
                                !     mosaic - read the grid from a mosaic (supergrid)
                                !              file set by GRID_FILE.
                                !     cartesian - use a (flat) Cartesian grid.
                                !     spherical - use a simple spherical grid.
                                !     mercator - use a Mercator spherical grid.
GRID_FILE = "bob_grid.nc"  ! default "ocean_hgrid.nc"(?);
                                ! Name of the file from which to read horizontal grid data.
TOPO_CONFIG = "file"            !
                                ! This specifies how bathymetry is specified:
                                !     file - read bathymetric information from the file
                                !       specified by (TOPO_FILE).
                                !     flat - flat bottom set to MAXIMUM_DEPTH.
                                !     bowl - an analytically specified bowl-shaped basin
                                !       ranging between MAXIMUM_DEPTH and MINIMUM_DEPTH.
                                !     spoon - a similar shape to 'bowl', but with an vertical
                                !       wall at the southern face.
                                !     halfpipe - a zonally uniform channel with a half-sine
                                !       profile in the meridional direction.
                                !     benchmark - use the benchmark test case topography.
                                !     DOME - use a slope and channel configuration for the
                                !       DOME sill-overflow test case.
                                !     DOME2D - use a shelf and slope configuration for the
                                !       DOME2D gravity current/overflow test case.
                                !     seamount - Gaussian bump for spontaneous motion test case.
                                !     Phillips - ACC-like idealized topography used in the Phillips config.
                                !     USER - call a user modified routine.
TOPO_FILE = "topo_final.nc"    ! default = "topog.nc"
                                ! The file from which the bathymetry is read.
MAXIMUM_DEPTH = 8200.0          !   [m]
                                ! The maximum depth of the ocean.
MINIMUM_DEPTH =  20.0             !   [m] default = 0.0
                                ! If MASKING_DEPTH is unspecified, then anything shallower than
                                ! MINIMUM_DEPTH is assumed to be land and all fluxes are masked out.
                                ! If MASKING_DEPTH is specified, then all depths shallower than
                                ! MINIMUM_DEPTH but depper than MASKING_DEPTH are rounded to MINIMUM_DEPTH.
MASKING_DEPTH = -9999.0         !   [m] default = -9999.0
                                ! The depth below which to mask points as land points, for which all
                                ! fluxes are zeroed out. MASKING_DEPTH is ignored if negative.
CHANNEL_CONFIG = "none"         ! default = "none"
                                ! A parameter that determines which set of channels are
                                ! restricted to specific  widths.  Options are:
                                !     none - All channels have the grid width.
                                !     global_1deg - Sets 16 specific channels appropriate
                                !       for a 1-degree model, as used in CM2G.
                                !     list - Read the channel locations and widths from a
                                !       text file, like MOM_channel_list in the MOM_SIS
                                !       test case.
                                !     file - Read open face widths everywhere from a
                                !       NetCDF file on the model grid.

SAVE_INITIAL_CONDS = False      !   [Boolean] default = False
                                ! If true, write the initial conditions to a file given by IC_OUTPUT_FILE.
IC_OUTPUT_FILE = "MOM_IC.nc"       ! default = "MOM_IC"
                                ! The file into which to write the initial conditions.

WRITE_GEOM = 0                  ! default = 1
                                ! If =0, never write the geometry and vertical grid files.
                                ! If =1, write the geometry and vertical grid files only for
                                ! a new simulation. If =2, always write the geometry and
                                ! vertical grid files. Other values are invalid.

! === module MOM_grid_init ===
INIT_LAYERS_FROM_Z_FILE = True  !   [Boolean] default = False
                                ! If true, intialize the layer thicknesses, temperatures,
                                ! and salnities from a Z-space file on a latitude-
                                ! longitude grid.
INIT_UV_FROM_Z_FILE = True      !   [Boolean] default = False
!                                ! If true, initialize the UV from a Z-space file on a
                                ! latitude-longitude grid
TEMP_SALT_Z_INIT_FILE = "2013_final.nc" ! default = "temp_salt_z.nc"
                                ! The name of the z-space input file used to initialize
                                ! the layer thicknesses, temperatures and salinities.
UV_Z_INIT_FILE = "2013_final.nc" ! default = "uv_z.nc"
!                                ! The name of the z-space input file used to initialize
                                ! u-vel (U) and v-vel (V).
Z_INIT_FILE_PTEMP_VAR = "TEMP" ! default = "ptemp"
                                ! The name of the potential temperature variable in
                                ! TEMP_SALT_Z_INIT_FILE.
Z_INIT_FILE_SALT_VAR = "SAL"   ! default = "salt"
                                ! The name of the salinity variable in
                                ! TEMP_SALT_Z_INIT_FILE.
Z_INIT_FILE_U_VAR = "U_BOT"   ! default = "u"
!                                ! The name of the z-space input file used to initialize u-vel, only.
Z_INIT_FILE_V_VAR = "v_BOT"   ! default = "v"
!                                ! The name of the z-space input file used to initialize v-vel, only.

Z_INIT_ALE_REMAPPING = False     !   [Boolean] default = False
                                ! If True, then remap straight to model coordinate from file.

Z_INIT_HOMOGENIZE = False       !   [Boolean] default = False
                                ! If True, then horizontally homogenize the interpolated
                                ! initial conditions.
Z_INIT_REMAPPING_SCHEME = "PPM_IH4" ! default = "PPM_IH4"
                                ! The remapping scheme to use if using Z_INIT_ALE_REMAPPING
                                ! is True.
Z_INIT_REMAP_GENERAL = True     !   [Boolean] default = False
                                ! If false, only initializes to z* coordinates.
                                ! If true, allows initialization directly to general coordinates.
Z_INIT_REMAP_FULL_COLUMN = True !   [Boolean] default = True
                                ! If false, only reconstructs profiles for valid data points.
                                ! If true, inserts vanished layers below the valid data.
Z_INIT_REMAP_OLD_ALG = False    !   [Boolean] default = True
                                ! If false, uses the preferred remapping algorithm for initialization.
                                ! If true, use an older, less robust algorithm for remapping.

! === module MOM_MEKE ===
USE_MEKE = False                !   [Boolean] default = False
                                ! If true, turns on the MEKE scheme which calculates