! Blank file in which we can put "overrides" for parameters
DAYMAX = 5